21
TNT
C       0.000000    0.000000    0.000000
C       1.399000    0.000000    0.000000
C       2.099000    1.214000    0.000000
C       1.395000    2.418000    0.131000
C      -0.004000    2.414000    0.130000
C      -0.704000    1.207000    0.049000
N      -2.078000    1.204000    0.051000
O      -2.754000    0.035000   -0.011000
O      -2.757000    2.372000    0.113000
N       2.046000   -1.213000    0.034000
O       3.374000   -1.294000    0.273000
O       1.316000   -2.351000    0.022000
N       2.039000    3.622000    0.297000
O       1.306000    4.753000    0.408000
O       3.367000    3.680000    0.544000
C       3.589000    1.230000   -0.261000
H      -0.545000   -0.944000   -0.019000
H      -0.551000    3.353000    0.213000
H       3.865000    0.385000   -0.890000
H       4.130000    1.179000    0.684000
H       3.863000    2.139000   -0.794000
